Version 4
SHEET 1 880 680
WIRE -1040 -480 -1056 -480
WIRE -528 -480 -544 -480
WIRE -1056 -464 -1056 -480
WIRE -544 -464 -544 -480
WIRE -896 -160 -1104 -160
WIRE -800 -160 -896 -160
WIRE -736 -160 -800 -160
WIRE -416 -160 -480 -160
WIRE -320 -160 -416 -160
WIRE -160 -160 -320 -160
WIRE 64 -160 -160 -160
WIRE 288 -160 64 -160
WIRE -1104 -144 -1104 -160
WIRE -896 -128 -896 -160
WIRE -800 -128 -800 -160
WIRE -416 -128 -416 -160
WIRE -320 -128 -320 -160
WIRE -160 -128 -160 -160
WIRE 64 -80 64 -160
WIRE -1104 -32 -1104 -64
WIRE -896 -32 -896 -64
WIRE -800 -32 -800 -64
WIRE -608 -32 -608 -64
WIRE -416 -32 -416 -64
WIRE -320 -32 -320 -64
WIRE -160 -32 -160 -48
WIRE -96 -32 -160 -32
WIRE 0 -32 -16 -32
WIRE -160 -16 -160 -32
WIRE 96 16 64 16
WIRE 208 16 176 16
WIRE -160 64 -160 48
WIRE -160 64 -256 64
WIRE 208 64 208 16
WIRE 256 64 208 64
WIRE 288 64 256 64
WIRE -160 80 -160 64
WIRE -256 96 -256 64
WIRE 256 96 256 64
WIRE 96 112 64 112
WIRE 208 112 208 64
WIRE 208 112 176 112
WIRE -160 160 -160 144
WIRE -96 160 -160 160
WIRE 0 160 -16 160
WIRE -256 176 -256 160
WIRE -160 176 -160 160
WIRE 256 192 256 160
WIRE -160 272 -160 256
WIRE 64 272 64 208
FLAG -1056 -384 0
FLAG -1056 -480 V1
FLAG -544 -480 V2
FLAG -544 -384 0
FLAG -1104 -160 VIN
FLAG 288 -160 OUT
IOPIN 288 -160 Out
FLAG -1104 -32 0
FLAG -608 -32 0
FLAG -416 -32 0
FLAG -320 -32 0
FLAG -896 -32 0
FLAG -256 176 0
FLAG -160 272 0
FLAG 64 272 0
FLAG 288 64 VGND
IOPIN 288 64 Out
FLAG 256 192 0
FLAG -800 -32 0
SYMBOL voltage -1056 -480 R0
WINDOW 123 0 0 Left 2
WINDOW 39 0 0 Left 2
SYMATTR InstName V1
SYMATTR Value PULSE(14.9 15.1 0ms 1ms 0ms 0ms 1ms)
SYMBOL voltage -544 -480 R0
WINDOW 123 0 0 Left 2
WINDOW 39 0 0 Left 2
SYMATTR InstName V2
SYMATTR Value PULSE(-0.5 +0.5 0ms 0ms 0ms 20us 40us)
SYMBOL bv -1104 -160 R0
SYMATTR InstName B1
SYMATTR Value V=v(V1)+v(V2)
SYMBOL PowerProducts\\LT1086-12 -608 -160 R0
SYMATTR InstName U1
SYMBOL cap -432 -128 R0
SYMATTR InstName C1
SYMATTR Value 0.1uF
SYMBOL cap -336 -128 R0
SYMATTR InstName C2
SYMATTR Value 100uF
SYMBOL cap -912 -128 R0
SYMATTR InstName C3
SYMATTR Value 10uF
SYMBOL res -176 -144 R0
SYMATTR InstName R1
SYMATTR Value 4.7k
SYMBOL res -176 160 R0
SYMATTR InstName R2
SYMATTR Value 4.7k
SYMBOL diode -176 -16 R0
SYMATTR InstName D1
SYMBOL diode -176 80 R0
SYMATTR InstName D2
SYMBOL cap -272 96 R0
SYMATTR InstName C4
SYMATTR Value 100uF
SYMBOL res 0 -48 R90
WINDOW 0 0 56 VBottom 2
WINDOW 3 32 56 VTop 2
SYMATTR InstName R3
SYMATTR Value 22
SYMBOL res 0 144 R90
WINDOW 0 0 56 VBottom 2
WINDOW 3 32 56 VTop 2
SYMATTR InstName R4
SYMATTR Value 22
SYMBOL npn 0 -80 R0
SYMATTR InstName Q1
SYMBOL pnp 0 208 M180
WINDOW 3 85 8 Left 2
SYMATTR InstName Q2
SYMBOL res 192 0 R90
WINDOW 0 0 56 VBottom 2
WINDOW 3 32 56 VTop 2
SYMATTR InstName R5
SYMATTR Value 10
SYMBOL res 192 96 R90
WINDOW 0 0 56 VBottom 2
WINDOW 3 32 56 VTop 2
SYMATTR InstName R6
SYMATTR Value 10
SYMBOL cap 240 96 R0
SYMATTR InstName C5
SYMATTR Value 470uF
SYMBOL cap -816 -128 R0
SYMATTR InstName C6
SYMATTR Value 0.1uF
TEXT -1066 128 Left 2 !.tran 10ms
